Circuit: * C:\Users\Mateus\OneDrive\Documentos\8.Projet Portolan\Buck_Boost_LT8390_Completo2.asc

c17: Increased Cpar to 1e-09
c15: Increased Cpar to 1e-09
c20: Increased Cpar to 1e-09
c21: Increased Cpar to 1e-09
Per .tran options, skipping operating point for transient analysis.
Heightened Def Con from 2e-09 to 2e-09
Heightened Def Con from 2e-09 to 5.125e-09
Heightened Def Con from 0.0755399 to 0.0755399

Date: Wed Oct 30 02:23:19 2024
Total elapsed time: 2019.146 seconds.

tnom = 27
temp = 27
method = modified trap
totiter = 42653770
traniter = 42653770
tranpoints = 10774865
accept = 7960261
rejected = 2814607
matrix size = 311
fillins = 54
solver = Normal
Avg thread counts: 1.0/1.0/1.0/1.0
Matrix Compiler1: 12.67 KB object code size  6.9/3.0/[1.4]
Matrix Compiler2: off  [3.2]/5.5/9.9

